2024_89_CemigReconfigurationCases/1_AlimsCemig/AOR04/AOR04CargaBT_Dez.dss
new load.3000804618M1 bus1=RML1053152046.1.2.0,Phases=2,kv=0.24,kW=0.7221,pf=0.92,Vminpu=0.92,Vmaxpu=1.5,model=8,zipv=[0.5,0,0.5,1,0,0,0],daily=RES3_14,status=variable
new load.3000804627M1 bus1=RML1054868117.1.2.0,Phases=2,kv=0.24,kW=1.91962,pf=0.92,Vminpu=0.92,Vmaxpu=1.5,model=8,zipv=[0.5,0,0.5,1,0,0,0],daily=RUR2_19,status=variable
new load.3000804636M1 bus1=RML1054868516.1.2.0,Phases=2,kv=0.24,kW=1.73918,pf=0.92,Vminpu=0.92,Vmaxpu=1.5,model=8,zipv=[0.5,0,0.5,1,0,0,0],daily=RUR3_16,status=variable
new load.3000804645M1 bus1=RML1054893205.1.2.0,Phases=2,kv=0.24,kW=1.24188,pf=0.92,Vminpu=0.92,Vmaxpu=1.5,model=8,zipv=[0.5,0,0.5,1,0,0,0],daily=RUR4_16,status=variable
new load.3000804654M1 bus1=RML1054893212.1.2.0,Phases=2,kv=0.24,kW=2.67146,pf=0.92,Vminpu=0.92,Vmaxpu=1.5,model=8,zipv=[0.5,0,0.5,1,0,0,0],daily=RUR2_19,status=variable
new load.3000804662M1 bus1=RML1054893233.1.2.0,Phases=2,kv=0.24,kW=0.29524,pf=0.92,Vminpu=0.92,Vmaxpu=1.5,model=8,zipv=[0.5,0,0.5,1,0,0,0],daily=RUR4_16,status=variable
new load.3000804671M1 bus1=RML1052994077.1.2.0,Phases=2,kv=0.24,kW=2.26782,pf=0.92,Vminpu=0.92,Vmaxpu=1.5,model=8,zipv=[0.5,0,0.5,1,0,0,0],daily=RUR3_16,status=variable
new load.3000804679M1 bus1=RML1052994112.1.2.0,Phases=2,kv=0.24,kW=0.85426,pf=0.92,Vminpu=0.92,Vmaxpu=1.5,model=8,zipv=[0.5,0,0.5,1,0,0,0],daily=RUR3_16,status=variable
new load.3000804687M1 bus1=RML1052994098.1.2.0,Phases=2,kv=0.24,kW=0.95004,pf=0.92,Vminpu=0.92,Vmaxpu=1.5,model=8,zipv=[0.5,0,0.5,1,0,0,0],daily=RUR3_16,status=variable
new load.3000804695M1 bus1=RML1053155434.1.2.0,Phases=2,kv=0.24,kW=2.82344,pf=0.92,Vminpu=0.92,Vmaxpu=1.5,model=8,zipv=[0.5,0,0.5,1,0,0,0],daily=RUR2_19,status=variable
new load.3000804703M1 bus1=RML1054869552.1.2.0,Phases=2,kv=0.24,kW=0.95386,pf=0.92,Vminpu=0.92,Vmaxpu=1.5,model=8,zipv=[0.5,0,0.5,1,0,0,0],daily=RUR3_16,status=variable
new load.3000804711M1 bus1=RML1054868355.1.2.0,Phases=2,kv=0.24,kW=1.66454,pf=0.92,Vminpu=0.92,Vmaxpu=1.5,model=8,zipv=[0.5,0,0.5,1,0,0,0],daily=RUR1_17,status=variable
new load.3000804730M1 bus1=RML1054897384.1.2.0,Phases=2,kv=0.24,kW=1.5197,pf=0.92,Vminpu=0.92,Vmaxpu=1.5,model=8,zipv=[0.5,0,0.5,1,0,0,0],daily=RUR2_19,status=variable
new load.3000804738M1 bus1=RML1052994007.1.2.0,Phases=2,kv=0.24,kW=2.9754,pf=0.92,Vminpu=0.92,Vmaxpu=1.5,model=8,zipv=[0.5,0,0.5,1,0,0,0],daily=RUR2_19,status=variable
new load.3000804746M1 bus1=RML1054897447.1.2.0,Phases=2,kv=0.24,kW=0.41614,pf=0.92,Vminpu=0.92,Vmaxpu=1.5,model=8,zipv=[0.5,0,0.5,1,0,0,0],daily=RUR1_17,status=variable
new load.3000804755M1 bus1=RML1053169476.1.2.0,Phases=2,kv=0.24,kW=1.22376,pf=0.92,Vminpu=0.92,Vmaxpu=1.5,model=8,zipv=[0.5,0,0.5,1,0,0,0],daily=RUR2_19,status=variable
new load.3000804763M1 bus1=RML1053169518.1.2.0,Phases=2,kv=0.24,kW=1.11178,pf=0.92,Vminpu=0.92,Vmaxpu=1.5,model=8,zipv=[0.5,0,0.5,1,0,0,0],daily=RUR2_19,status=variable
new load.3000804780M1 bus1=RML1053169553.1.2.0,Phases=2,kv=0.24,kW=2.07138,pf=0.92,Vminpu=0.92,Vmaxpu=1.5,model=8,zipv=[0.5,0,0.5,1,0,0,0],daily=RUR4_16,status=variable
new load.3000804789M1 bus1=RML1053169777.1.2.0,Phases=2,kv=0.24,kW=1.13008,pf=0.92,Vminpu=0.92,Vmaxpu=1.5,model=8,zipv=[0.5,0,0.5,1,0,0,0],daily=RUR3_16,status=variable
new load.3000804797M1 bus1=RML1054898245.1.2.0,Phases=2,kv=0.24,kW=1.31778,pf=0.92,Vminpu=0.92,Vmaxpu=1.5,model=8,zipv=[0.5,0,0.5,1,0,0,0],daily=RUR3_16,status=variable
new load.3000804805M1 bus1=RML1053169672.1.2.0,Phases=2,kv=0.24,kW=3.95062,pf=0.92,Vminpu=0.92,Vmaxpu=1.5,model=8,zipv=[0.5,0,0.5,1,0,0,0],daily=RUR4_16,status=variable
new load.3000804813M1 bus1=RML1053169630.1.2.0,Phases=2,kv=0.24,kW=1.20286,pf=0.92,Vminpu=0.92,Vmaxpu=1.5,model=8,zipv=[0.5,0,0.5,1,0,0,0],daily=RUR3_16,status=variable
new load.3000804822M1 bus1=RML1053170078.1.2.0,Phases=2,kv=0.24,kW=0.70386,pf=0.92,Vminpu=0.92,Vmaxpu=1.5,model=8,zipv=[0.5,0,0.5,1,0,0,0],daily=RUR2_19,status=variable
new load.3000804830M1 bus1=RML1053170134.1.2.0,Phases=2,kv=0.24,kW=4.99098,pf=0.92,Vminpu=0.92,Vmaxpu=1.5,model=8,zipv=[0.5,0,0.5,1,0,0,0],daily=RUR4_16,status=variable
new load.3000804839M1 bus1=RML1053170197.1.2.0,Phases=2,kv=0.24,kW=1.33694,pf=0.92,Vminpu=0.92,Vmaxpu=1.5,model=8,zipv=[0.5,0,0.5,1,0,0,0],daily=RUR3_16,status=variable
new load.3000804847M1 bus1=RML1053169980.1.2.0,Phases=2,kv=0.24,kW=1.40918,pf=0.92,Vminpu=0.92,Vmaxpu=1.5,model=8,zipv=[0.5,0,0.5,1,0,0,0],daily=RUR1_17,status=variable
new load.3000804623M1 bus1=RML1054867795.1.2.0,Phases=2,kv=0.24,kW=2.59148,pf=0.92,Vminpu=0.92,Vmaxpu=1.5,model=8,zipv=[0.5,0,0.5,1,0,0,0],daily=RUR2_19,status=variable
new load.3000804631M1 bus1=RML1054893163.1.2.0,Phases=2,kv=0.24,kW=0.62976,pf=0.92,Vminpu=0.92,Vmaxpu=1.5,model=8,zipv=[0.5,0,0.5,1,0,0,0],daily=RES1_16,status=variable
new load.3000804640M1 bus1=RML1054893184.1.2.0,Phases=2,kv=0.24,kW=5.6424,pf=0.92,Vminpu=0.92,Vmaxpu=1.5,model=8,zipv=[0.5,0,0.5,1,0,0,0],daily=RUR4_16,status=variable
new load.3000804658M1 bus1=RML1054868278.1.2.0,Phases=2,kv=0.24,kW=2.71146,pf=0.92,Vminpu=0.92,Vmaxpu=1.5,model=8,zipv=[0.5,0,0.5,1,0,0,0],daily=RUR2_19,status=variable
new load.3000804667M1 bus1=RML1052994021.1.2.0,Phases=2,kv=0.24,kW=1.2335,pf=0.92,Vminpu=0.92,Vmaxpu=1.5,model=8,zipv=[0.5,0,0.5,1,0,0,0],daily=RUR3_16,status=variable
new load.3000804675M1 bus1=RML1053001539.1.2.0,Phases=2,kv=0.24,kW=1.62368,pf=0.92,Vminpu=0.92,Vmaxpu=1.5,model=8,zipv=[0.5,0,0.5,1,0,0,0],daily=RUR2_19,status=variable
new load.3000804683M1 bus1=RML1052994140.1.2.0,Phases=2,kv=0.24,kW=0.95522,pf=0.92,Vminpu=0.92,Vmaxpu=1.5,model=8,zipv=[0.5,0,0.5,1,0,0,0],daily=RUR1_17,status=variable
new load.3000804691M1 bus1=RML1052994014.1.2.0,Phases=2,kv=0.24,kW=1.63168,pf=0.92,Vminpu=0.92,Vmaxpu=1.5,model=8,zipv=[0.5,0,0.5,1,0,0,0],daily=RUR2_19,status=variable
new load.3000804699M1 bus1=RML1054868803.1.2.0,Phases=2,kv=0.24,kW=1.02142,pf=0.92,Vminpu=0.92,Vmaxpu=1.5,model=8,zipv=[0.5,0,0.5,1,0,0,0],daily=RUR1_17,status=variable
new load.3000804715M1 bus1=RML1054869916.1.2.0,Phases=2,kv=0.24,kW=1.56768,pf=0.92,Vminpu=0.92,Vmaxpu=1.5,model=8,zipv=[0.5,0,0.5,1,0,0,0],daily=RUR2_19,status=variable
new load.3000804742M1 bus1=RML1052994308.1.2.0,Phases=2,kv=0.24,kW=2.21556,pf=0.92,Vminpu=0.92,Vmaxpu=1.5,model=8,zipv=[0.5,0,0.5,1,0,0,0],daily=RUR2_19,status=variable
new load.3000804759M1 bus1=RML1055035480.1.2.0,Phases=2,kv=0.24,kW=1.23176,pf=0.92,Vminpu=0.92,Vmaxpu=1.5,model=8,zipv=[0.5,0,0.5,1,0,0,0],daily=RUR2_19,status=variable
new load.3000804784M1 bus1=RML1053169574.1.2.0,Phases=2,kv=0.24,kW=1.494,pf=0.92,Vminpu=0.92,Vmaxpu=1.5,model=8,zipv=[0.5,0,0.5,1,0,0,0],daily=RUR3_16,status=variable
new load.3000804793M1 bus1=RML1053169798.1.2.0,Phases=2,kv=0.24,kW=1.6932,pf=0.92,Vminpu=0.92,Vmaxpu=1.5,model=8,zipv=[0.5,0,0.5,1,0,0,0],daily=RUR3_16,status=variable
new load.3000804809M1 bus1=RML1053169595.1.2.0,Phases=2,kv=0.24,kW=0.29318,pf=0.92,Vminpu=0.92,Vmaxpu=1.5,model=8,zipv=[0.5,0,0.5,1,0,0,0],daily=RUR1_17,status=variable
new load.3000804817M1 bus1=RML1053169903.1.2.0,Phases=2,kv=0.24,kW=3.00716,pf=0.92,Vminpu=0.92,Vmaxpu=1.5,model=8,zipv=[0.5,0,0.5,1,0,0,0],daily=RUR3_16,status=variable
new load.3000804826M1 bus1=RML1055035298.1.2.0,Phases=2,kv=0.24,kW=1.5277,pf=0.92,Vminpu=0.92,Vmaxpu=1.5,model=8,zipv=[0.5,0,0.5,1,0,0,0],daily=RUR2_19,status=variable
new load.3000804835M1 bus1=RML1053170176.1.2.0,Phases=2,kv=0.24,kW=1.65872,pf=0.92,Vminpu=0.92,Vmaxpu=1.5,model=8,zipv=[0.5,0,0.5,1,0,0,0],daily=RUR3_16,status=variable
new load.3000804843M1 bus1=RML1053169945.1.2.0,Phases=2,kv=0.24,kW=1.13492,pf=0.92,Vminpu=0.92,Vmaxpu=1.5,model=8,zipv=[0.5,0,0.5,1,0,0,0],daily=RUR1_17,status=variable
new load.3000979646M1 bus1=RML1052696192.1.0,Phases=1,kv=0.127,kW=0.74306,pf=0.92,Vminpu=0.92,Vmaxpu=1.5,model=8,zipv=[0.5,0,0.5,1,0,0,0],daily=COM1_23,status=variable
new load.3000979656M1 bus1=RML1052697459.3.0,Phases=1,kv=0.127,kW=0.48438,pf=0.92,Vminpu=0.92,Vmaxpu=1.5,model=8,zipv=[0.5,0,0.5,1,0,0,0],daily=RES2_23,status=variable
new load.3000979664M1 bus1=RML1052697718.1.2.0,Phases=2,kv=0.22,kW=1.01486,pf=0.92,Vminpu=0.92,Vmaxpu=1.5,model=8,zipv=[0.5,0,0.5,1,0,0,0],daily=RES4_19,status=variable
new load.3000979681M1 bus1=RML1052697606.2.0,Phases=1,kv=0.127,kW=0.02712,pf=0.92,Vminpu=0.92,Vmaxpu=1.5,model=8,zipv=[0.5,0,0.5,1,0,0,0],daily=RES1_21,status=variable
new load.3000979700M1 bus1=RML1052697417.1.0,Phases=1,kv=0.127,kW=0.00788,pf=0.92,Vminpu=0.92,Vmaxpu=1.5,model=8,zipv=[0.5,0,0.5,1,0,0,0],daily=RES2_23,status=variable
new load.3000979717M1 bus1=RML1052696129.1.0,Phases=1,kv=0.127,kW=0.24854,pf=0.92,Vminpu=0.92,Vmaxpu=1.5,model=8,zipv=[0.5,0,0.5,1,0,0,0],daily=RES1_21,status=variable
new load.3000979726M1 bus1=RML1052693497.1.3.0,Phases=2,kv=0.22,kW=1.40912,pf=0.92,Vminpu=0.92,Vmaxpu=1.5,model=8,zipv=[0.5,0,0.5,1,0,0,0],daily=RES4_19,status=variable
new load.3000979734M1 bus1=RML1052693413.3.0,Phases=1,kv=0.127,kW=0.06386,pf=0.92,Vminpu=0.92,Vmaxpu=1.5,model=8,zipv=[0.5,0,0.5,1,0,0,0],daily=COM1_23,status=variable
new load.3000979750M1 bus1=RML1052692055.1.2.3.0,Phases=3,kv=0.22,kW=1.5674,pf=0.92,Vminpu=0.92,Vmaxpu=1.5,model=8,zipv=[0.5,0,0.5,1,0,0,0],daily=COM1_23,status=variable
new load.3000979762M1 bus1=RML1052691936.1.2.3.0,Phases=3,kv=0.22,kW=1.08206,pf=0.92,Vminpu=0.92,Vmaxpu=1.5,model=8,zipv=[0.5,0,0.5,1,0,0,0],daily=RES3_19,status=variable
new load.3000980041M1 bus1=RML1052690641.1.2.3.0,Phases=3,kv=0.22,kW=1.49774,pf=0.92,Vminpu=0.92,Vmaxpu=1.5,model=8,zipv=[0.5,0,0.5,1,0,0,0],daily=COM1_23,status=variable
new load.3000980052M1 bus1=RML1052689857.2.3.0,Phases=2,kv=0.22,kW=0.1851,pf=0.92,Vminpu=0.92,Vmaxpu=1.5,model=8,zipv=[0.5,0,0.5,1,0,0,0],daily=RES2_23,status=variable
new load.3000980069M1 bus1=RML1052688219.1.2.0,Phases=2,kv=0.22,kW=0.3623,pf=0.92,Vminpu=0.92,Vmaxpu=1.5,model=8,zipv=[0.5,0,0.5,1,0,0,0],daily=RES2_23,status=variable
new load.3000980078M1 bus1=RML1052687022.1.2.3.0,Phases=3,kv=0.22,kW=1.40782,pf=0.92,Vminpu=0.92,Vmaxpu=1.5,model=8,zipv=[0.5,0,0.5,1,0,0,0],daily=RES5_17,status=variable
new load.3000980087M1 bus1=RML1052685706.1.2.3.0,Phases=3,kv=0.22,kW=0.49624,pf=0.92,Vminpu=0.92,Vmaxpu=1.5,model=8,zipv=[0.5,0,0.5,1,0,0,0],daily=RES5_17,status=variable
new load.3000980096M1 bus1=RML1052685678.2.3.0,Phases=2,kv=0.22,kW=0.31504,pf=0.92,Vminpu=0.92,Vmaxpu=1.5,model=8,zipv=[0.5,0,0.5,1,0,0,0],daily=RES2_23,status=variable
new load.3000980105M1 bus1=RML1052684271.1.2.0,Phases=2,kv=0.22,kW=1.01486,pf=0.92,Vminpu=0.92,Vmaxpu=1.5,model=8,zipv=[0.5,0,0.5,1,0,0,0],daily=RES4_19,status=variable
new load.3000980113M1 bus1=RML1052684565.1.2.3.0,Phases=3,kv=0.22,kW=0.25758,pf=0.92,Vminpu=0.92,Vmaxpu=1.5,model=8,zipv=[0.5,0,0.5,1,0,0,0],daily=RES1_21,status=variable
new load.3000980121M1 bus1=RML1052684684.1.3.0,Phases=2,kv=0.22,kW=0.73088,pf=0.92,Vminpu=0.92,Vmaxpu=1.5,model=8,zipv=[0.5,0,0.5,1,0,0,0],daily=RES5_17,status=variable
new load.3000980141M1 bus1=RML1052684243.1.2.0,Phases=2,kv=0.22,kW=0.99294,pf=0.92,Vminpu=0.92,Vmaxpu=1.5,model=8,zipv=[0.5,0,0.5,1,0,0,0],daily=RES4_19,status=variable
new load.3000980159M1 bus1=RML1052682787.1.2.3.0,Phases=3,kv=0.22,kW=3.24482,pf=0.92,Vminpu=0.92,Vmaxpu=1.5,model=8,zipv=[0.5,0,0.5,1,0,0,0],daily=COM2_25,status=variable
new load.3000979651M1 bus1=RML1052696234.1.3.0,Phases=2,kv=0.22,kW=0.67694,pf=0.92,Vminpu=0.92,Vmaxpu=1.5,model=8,zipv=[0.5,0,0.5,1,0,0,0],daily=RES5_17,status=variable
new load.3000979660M1 bus1=RML1052697508.2.0,Phases=1,kv=0.127,kW=0.4647,pf=0.92,Vminpu=0.92,Vmaxpu=1.5,model=8,zipv=[0.5,0,0.5,1,0,0,0],daily=RES2_23,status=variable
new load.3000979668M1 bus1=RML1052697683.2.0,Phases=1,kv=0.127,kW=0.2834,pf=0.92,Vminpu=0.92,Vmaxpu=1.5,model=8,zipv=[0.5,0,0.5,1,0,0,0],daily=RES3_19,status=variable
new load.3000979677M1 bus1=RML1052697662.3.0,Phases=1,kv=0.127,kW=0.49594,pf=0.92,Vminpu=0.92,Vmaxpu=1.5,model=8,zipv=[0.5,0,0.5,1,0,0,0],daily=RES3_19,status=variable
new load.3000979685M1 bus1=RML1052697578.1.2.3.0,Phases=3,kv=0.22,kW=1.03676,pf=0.92,Vminpu=0.92,Vmaxpu=1.5,model=8,zipv=[0.5,0,0.5,1,0,0,0],daily=RES4_19,status=variable
new load.3000979696M1 bus1=RML1052697480.1.0,Phases=1,kv=0.127,kW=0.27052,pf=0.92,Vminpu=0.92,Vmaxpu=1.5,model=8,zipv=[0.5,0,0.5,1,0,0,0],daily=RES3_19,status=variable
new load.3000979705M1 bus1=RML1052697424.2.0,Phases=1,kv=0.127,kW=0.4647,pf=0.92,Vminpu=0.92,Vmaxpu=1.5,model=8,zipv=[0.5,0,0.5,1,0,0,0],daily=RES2_23,status=variable
new load.3000979722M1 bus1=RML1052694197.1.2.3.0,Phases=3,kv=0.22,kW=1.19206,pf=0.92,Vminpu=0.92,Vmaxpu=1.5,model=8,zipv=[0.5,0,0.5,1,0,0,0],daily=RES5_17,status=variable
new load.3000979730M1 bus1=RML1052693462.1.3.0,Phases=2,kv=0.22,kW=0.78752,pf=0.92,Vminpu=0.92,Vmaxpu=1.5,model=8,zipv=[0.5,0,0.5,1,0,0,0],daily=RES5_17,status=variable
new load.3000979738M1 bus1=RML1052693357.2.3.0,Phases=2,kv=0.22,kW=0.33492,pf=0.92,Vminpu=0.92,Vmaxpu=1.5,model=8,zipv=[0.5,0,0.5,1,0,0,0],daily=RES3_19,status=variable
new load.3000980048M1 bus1=RML1052690599.1.3.0,Phases=2,kv=0.22,kW=3.60714,pf=0.92,Vminpu=0.92,Vmaxpu=1.5,model=8,zipv=[0.5,0,0.5,1,0,0,0],daily=RES6_14,status=variable
new load.3000980065M1 bus1=RML1052689262.1.2.3.0,Phases=3,kv=0.22,kW=1.17912,pf=0.92,Vminpu=0.92,Vmaxpu=1.5,model=8,zipv=[0.5,0,0.5,1,0,0,0],daily=RES4_19,status=variable
new load.3000980073M1 bus1=RML1052688275.1.2.3.0,Phases=3,kv=0.22,kW=1.11422,pf=0.92,Vminpu=0.92,Vmaxpu=1.5,model=8,zipv=[0.5,0,0.5,1,0,0,0],daily=RES6_14,status=variable
new load.3000980083M1 bus1=RML1052686168.1.2.0,Phases=2,kv=0.22,kW=0.42882,pf=0.92,Vminpu=0.92,Vmaxpu=1.5,model=8,zipv=[0.5,0,0.5,1,0,0,0],daily=RES5_17,status=variable
new load.3000980091M1 bus1=RML1052684845.1.2.0,Phases=2,kv=0.22,kW=0.88192,pf=0.92,Vminpu=0.92,Vmaxpu=1.5,model=8,zipv=[0.5,0,0.5,1,0,0,0],daily=RES5_17,status=variable
new load.3000980100M1 bus1=RML1052685650.1.2.3.0,Phases=3,kv=0.22,kW=1.01676,pf=0.92,Vminpu=0.92,Vmaxpu=1.5,model=8,zipv=[0.5,0,0.5,1,0,0,0],daily=RES5_17,status=variable
new load.3000980109M1 bus1=RML1052684236.1.2.0,Phases=2,kv=0.22,kW=0.16268,pf=0.92,Vminpu=0.92,Vmaxpu=1.5,model=8,zipv=[0.5,0,0.5,1,0,0,0],daily=RES1_21,status=variable
new load.3000980126M1 bus1=RML1052684166.2.3.0,Phases=2,kv=0.22,kW=1.03052,pf=0.92,Vminpu=0.92,Vmaxpu=1.5,model=8,zipv=[0.5,0,0.5,1,0,0,0],daily=RES3_19,status=variable
new load.3000980135M1 bus1=RML1052683732.2.3.0,Phases=2,kv=0.22,kW=0.48918,pf=0.92,Vminpu=0.92,Vmaxpu=1.5,model=8,zipv=[0.5,0,0.5,1,0,0,0],daily=RES4_19,status=variable
new load.3000980147M1 bus1=RML1052684145.1.0,Phases=1,kv=0.127,kW=0.03484,pf=0.92,Vminpu=0.92,Vmaxpu=1.5,model=8,zipv=[0.5,0,0.5,1,0,0,0],daily=COM1_23,status=variable
new load.3000980155M1 bus1=RML1052682752.1.2.0,Phases=2,kv=0.22,kW=0.53952,pf=0.92,Vminpu=0.92,Vmaxpu=1.5,model=8,zipv=[0.5,0,0.5,1,0,0,0],daily=RES2_23,status=variable
new load.3000980164M1 bus1=RML1052682668.2.3.0,Phases=2,kv=0.22,kW=0.68266,pf=0.92,Vminpu=0.92,Vmaxpu=1.5,model=8,zipv=[0.5,0,0.5,1,0,0,0],daily=RES4_19,status=variable
new load.3000804632M1 bus1=RML1054893170.1.2.0,Phases=2,kv=0.24,kW=1.16456,pf=0.92,Vminpu=0.92,Vmaxpu=1.5,model=8,zipv=[0.5,0,0.5,1,0,0,0],daily=RUR3_16,status=variable
new load.3000804651M1 bus1=RML1054867809.1.2.3.0,Phases=3,kv=0.22,kW=3.17268,pf=0.92,Vminpu=0.92,Vmaxpu=1.5,model=8,zipv=[0.5,0,0.5,1,0,0,0],daily=RUR4_16,status=variable
new load.3000804659M1 bus1=RML1054868432.1.2.0,Phases=2,kv=0.24,kW=1.85026,pf=0.92,Vminpu=0.92,Vmaxpu=1.5,model=8,zipv=[0.5,0,0.5,1,0,0,0],daily=RUR3_16,status=variable
new load.3000804676M1 bus1=RML1052994196.1.2.0,Phases=2,kv=0.24,kW=1.14158,pf=0.92,Vminpu=0.92,Vmaxpu=1.5,model=8,zipv=[0.5,0,0.5,1,0,0,0],daily=RUR3_16,status=variable
new load.3000804684M1 bus1=RML1052994161.1.2.0,Phases=2,kv=0.24,kW=0.42904,pf=0.92,Vminpu=0.92,Vmaxpu=1.5,model=8,zipv=[0.5,0,0.5,1,0,0,0],daily=RUR3_16,status=variable
new load.3000804692M1 bus1=RML1052993888.1.2.0,Phases=2,kv=0.24,kW=0.52266,pf=0.92,Vminpu=0.92,Vmaxpu=1.5,model=8,zipv=[0.5,0,0.5,1,0,0,0],daily=COM1_20,status=variable
new load.3000804700M1 bus1=RML1054868817.1.2.0,Phases=2,kv=0.24,kW=1.5117,pf=0.92,Vminpu=0.92,Vmaxpu=1.5,model=8,zipv=[0.5,0,0.5,1,0,0,0],daily=RUR2_19,status=variable
new load.3000804708M1 bus1=RML1054897363.1.2.0,Phases=2,kv=0.24,kW=1.39972,pf=0.92,Vminpu=0.92,Vmaxpu=1.5,model=8,zipv=[0.5,0,0.5,1,0,0,0],daily=RUR1_17,status=variable
new load.3000804716M1 bus1=RML1054869517.1.2.0,Phases=2,kv=0.24,kW=0.34994,pf=0.92,Vminpu=0.92,Vmaxpu=1.5,model=8,zipv=[0.5,0,0.5,1,0,0,0],daily=RUR1_17,status=variable
new load.3000804725M1 bus1=RML1053001546.1.2.0,Phases=2,kv=0.24,kW=1.08762,pf=0.92,Vminpu=0.92,Vmaxpu=1.5,model=8,zipv=[0.5,0,0.5,1,0,0,0],daily=RUR1_17,status=variable
new load.3000804735M1 bus1=RML1052993951.1.2.0,Phases=2,kv=0.24,kW=2.89542,pf=0.92,Vminpu=0.92,Vmaxpu=1.5,model=8,zipv=[0.5,0,0.5,1,0,0,0],daily=RUR2_19,status=variable
new load.3000804743M1 bus1=RML1054897405.1.2.3.0,Phases=3,kv=0.22,kW=2.14636,pf=0.92,Vminpu=0.92,Vmaxpu=1.5,model=8,zipv=[0.5,0,0.5,1,0,0,0],daily=RUR4_16,status=variable
new load.3000804752M1 bus1=RML1053045625.1.2.0,Phases=2,kv=0.24,kW=3.67926,pf=0.92,Vminpu=0.92,Vmaxpu=1.5,model=8,zipv=[0.5,0,0.5,1,0,0,0],daily=RUR2_19,status=variable
new load.3000804760M1 bus1=RML1053169497.1.2.0,Phases=2,kv=0.24,kW=1.4637,pf=0.92,Vminpu=0.92,Vmaxpu=1.5,model=8,zipv=[0.5,0,0.5,1,0,0,0],daily=RUR2_19,status=variable
new load.3000804785M1 bus1=RML1053169714.1.2.0,Phases=2,kv=0.24,kW=0.64312,pf=0.92,Vminpu=0.92,Vmaxpu=1.5,model=8,zipv=[0.5,0,0.5,1,0,0,0],daily=RUR1_17,status=variable
new load.3000804794M1 bus1=RML1053169742.1.2.0,Phases=2,kv=0.24,kW=0.30646,pf=0.92,Vminpu=0.92,Vmaxpu=1.5,model=8,zipv=[0.5,0,0.5,1,0,0,0],daily=RUR3_16,status=variable
new load.3000804810M1 bus1=RML1053169609.1.2.0,Phases=2,kv=0.24,kW=2.4315,pf=0.92,Vminpu=0.92,Vmaxpu=1.5,model=8,zipv=[0.5,0,0.5,1,0,0,0],daily=RUR2_19,status=variable
new load.3000804818M1 bus1=RML1053169910.1.2.0,Phases=2,kv=0.24,kW=2.22184,pf=0.92,Vminpu=0.92,Vmaxpu=1.5,model=8,zipv=[0.5,0,0.5,1,0,0,0],daily=RUR3_16,status=variable
new load.3000804827M1 bus1=RML1053170113.1.2.0,Phases=2,kv=0.24,kW=0.78148,pf=0.92,Vminpu=0.92,Vmaxpu=1.5,model=8,zipv=[0.5,0,0.5,1,0,0,0],daily=RUR3_16,status=variable
new load.3000804836M1 bus1=RML1053170211.1.2.0,Phases=2,kv=0.24,kW=1.11178,pf=0.92,Vminpu=0.92,Vmaxpu=1.5,model=8,zipv=[0.5,0,0.5,1,0,0,0],daily=RUR2_19,status=variable
new load.3000804852M1 bus1=RML1053170022.1.2.0,Phases=2,kv=0.24,kW=2.29554,pf=0.92,Vminpu=0.92,Vmaxpu=1.5,model=8,zipv=[0.5,0,0.5,1,0,0,0],daily=RUR2_19,status=variable
new load.3000804621M1 bus1=RML1054868054.1.2.0,Phases=2,kv=0.24,kW=1.64766,pf=0.92,Vminpu=0.92,Vmaxpu=1.5,model=8,zipv=[0.5,0,0.5,1,0,0,0],daily=RUR2_19,status=variable
new load.3000804629M1 bus1=RML1054869433.1.2.0,Phases=2,kv=0.24,kW=0.6904,pf=0.92,Vminpu=0.92,Vmaxpu=1.5,model=8,zipv=[0.5,0,0.5,1,0,0,0],daily=RUR1_17,status=variable
new load.3000804638M1 bus1=RML1054870434.1.2.0,Phases=2,kv=0.24,kW=1.41572,pf=0.92,Vminpu=0.92,Vmaxpu=1.5,model=8,zipv=[0.5,0,0.5,1,0,0,0],daily=RUR2_19,status=variable
new load.3000804656M1 bus1=RML1054893219.1.2.0,Phases=2,kv=0.24,kW=0.86576,pf=0.92,Vminpu=0.92,Vmaxpu=1.5,model=8,zipv=[0.5,0,0.5,1,0,0,0],daily=RUR3_16,status=variable
new load.3000804673M1 bus1=RML1052994175.1.2.0,Phases=2,kv=0.24,kW=2.01116,pf=0.92,Vminpu=0.92,Vmaxpu=1.5,model=8,zipv=[0.5,0,0.5,1,0,0,0],daily=RUR3_16,status=variable
new load.3000804689M1 bus1=RML1054893324.1.2.0,Phases=2,kv=0.24,kW=0.3121,pf=0.92,Vminpu=0.92,Vmaxpu=1.5,model=8,zipv=[0.5,0,0.5,1,0,0,0],daily=RUR1_17,status=variable
new load.3000804697M1 bus1=RML1054868796.1.2.0,Phases=2,kv=0.24,kW=0.56696,pf=0.92,Vminpu=0.92,Vmaxpu=1.5,model=8,zipv=[0.5,0,0.5,1,0,0,0],daily=RUR3_16,status=variable
new load.3000804705M1 bus1=RML1054868866.1.2.0,Phases=2,kv=0.24,kW=0.4865,pf=0.92,Vminpu=0.92,Vmaxpu=1.5,model=8,zipv=[0.5,0,0.5,1,0,0,0],daily=RUR3_16,status=variable
new load.3000804713M1 bus1=RML1054868565.1.2.0,Phases=2,kv=0.24,kW=2.11158,pf=0.92,Vminpu=0.92,Vmaxpu=1.5,model=8,zipv=[0.5,0,0.5,1,0,0,0],daily=RUR2_19,status=variable
new load.3000804721M1 bus1=RML1052993937.1.2.0,Phases=2,kv=0.24,kW=1.30374,pf=0.92,Vminpu=0.92,Vmaxpu=1.5,model=8,zipv=[0.5,0,0.5,1,0,0,0],daily=RUR2_19,status=variable
new load.3000804740M1 bus1=RML1052994294.1.2.0,Phases=2,kv=0.24,kW=2.07958,pf=0.92,Vminpu=0.92,Vmaxpu=1.5,model=8,zipv=[0.5,0,0.5,1,0,0,0],daily=RUR2_19,status=variable
new load.3000804748M1 bus1=RML1053047613.1.2.0,Phases=2,kv=0.22,kW=1.61568,pf=0.92,Vminpu=0.92,Vmaxpu=1.5,model=8,zipv=[0.5,0,0.5,1,0,0,0],daily=RUR2_19,status=variable
new load.3000804757M1 bus1=RML1054898063.1.2.0,Phases=2,kv=0.24,kW=2.0083,pf=0.92,Vminpu=0.92,Vmaxpu=1.5,model=8,zipv=[0.5,0,0.5,1,0,0,0],daily=RES4_17,status=variable
new load.3000804765M1 bus1=RML1053169889.1.2.0,Phases=2,kv=0.24,kW=1.08028,pf=0.92,Vminpu=0.92,Vmaxpu=1.5,model=8,zipv=[0.5,0,0.5,1,0,0,0],daily=RUR3_16,status=variable
new load.3000804774M1 bus1=RML1053169854.1.2.0,Phases=2,kv=0.24,kW=2.0418,pf=0.92,Vminpu=0.92,Vmaxpu=1.5,model=8,zipv=[0.5,0,0.5,1,0,0,0],daily=RUR3_16,status=variable
new load.3000804782M1 bus1=RML1053169567.1.2.0,Phases=2,kv=0.24,kW=2.0035,pf=0.92,Vminpu=0.92,Vmaxpu=1.5,model=8,zipv=[0.5,0,0.5,1,0,0,0],daily=RUR3_16,status=variable
new load.3000804791M1 bus1=RML1053169763.1.2.0,Phases=2,kv=0.24,kW=1.11978,pf=0.92,Vminpu=0.92,Vmaxpu=1.5,model=8,zipv=[0.5,0,0.5,1,0,0,0],daily=RUR2_19,status=variable
new load.3000804799M1 bus1=RML1053169686.1.2.0,Phases=2,kv=0.24,kW=2.13556,pf=0.92,Vminpu=0.92,Vmaxpu=1.5,model=8,zipv=[0.5,0,0.5,1,0,0,0],daily=RUR2_19,status=variable
new load.3000804807M1 bus1=RML1053169588.1.2.0,Phases=2,kv=0.24,kW=2.3904,pf=0.92,Vminpu=0.92,Vmaxpu=1.5,model=8,zipv=[0.5,0,0.5,1,0,0,0],daily=RUR3_16,status=variable
new load.3000804815M1 bus1=RML1053169644.1.2.0,Phases=2,kv=0.24,kW=2.80744,pf=0.92,Vminpu=0.92,Vmaxpu=1.5,model=8,zipv=[0.5,0,0.5,1,0,0,0],daily=RUR2_19,status=variable
new load.3000804824M1 bus1=RML1053185443.1.2.0,Phases=2,kv=0.24,kW=0.15132,pf=0.92,Vminpu=0.92,Vmaxpu=1.5,model=8,zipv=[0.5,0,0.5,1,0,0,0],daily=RUR1_17,status=variable
new load.3000804832M1 bus1=RML1053170148.1.2.0,Phases=2,kv=0.24,kW=0.61676,pf=0.92,Vminpu=0.92,Vmaxpu=1.5,model=8,zipv=[0.5,0,0.5,1,0,0,0],daily=RUR3_16,status=variable
new load.3000804841M1 bus1=RML1053169959.1.2.0,Phases=2,kv=0.24,kW=1.06112,pf=0.92,Vminpu=0.92,Vmaxpu=1.5,model=8,zipv=[0.5,0,0.5,1,0,0,0],daily=RUR3_16,status=variable
new load.3000804849M1 bus1=RML1053170001.1.2.0,Phases=2,kv=0.24,kW=1.9261,pf=0.92,Vminpu=0.92,Vmaxpu=1.5,model=8,zipv=[0.5,0,0.5,1,0,0,0],daily=RUR4_16,status=variable
new load.3000804625M1 bus1=RML1054892379.1.2.0,Phases=2,kv=0.24,kW=0.77552,pf=0.92,Vminpu=0.92,Vmaxpu=1.5,model=8,zipv=[0.5,0,0.5,1,0,0,0],daily=RUR1_17,status=variable
new load.3000804633M1 bus1=RML1054868208.1.2.0,Phases=2,kv=0.24,kW=2.00732,pf=0.92,Vminpu=0.92,Vmaxpu=1.5,model=8,zipv=[0.5,0,0.5,1,0,0,0],daily=RUR3_16,status=variable
new load.3000804642M1 bus1=RML1054893191.1.2.0,Phases=2,kv=0.24,kW=1.4825,pf=0.92,Vminpu=0.92,Vmaxpu=1.5,model=8,zipv=[0.5,0,0.5,1,0,0,0],daily=RUR3_16,status=variable
new load.3000804652M1 bus1=RML1054869699.1.2.0,Phases=2,kv=0.24,kW=2.90342,pf=0.92,Vminpu=0.92,Vmaxpu=1.5,model=8,zipv=[0.5,0,0.5,1,0,0,0],daily=RUR2_19,status=variable
new load.3000804660M1 bus1=RML1054868446.1.2.0,Phases=2,kv=0.24,kW=2.07958,pf=0.92,Vminpu=0.92,Vmaxpu=1.5,model=8,zipv=[0.5,0,0.5,1,0,0,0],daily=RUR2_19,status=variable
new load.3000804669M1 bus1=RML1052994049.1.2.0,Phases=2,kv=0.24,kW=2.35152,pf=0.92,Vminpu=0.92,Vmaxpu=1.5,model=8,zipv=[0.5,0,0.5,1,0,0,0],daily=RUR2_19,status=variable
new load.3000804677M1 bus1=RML1052994182.1.2.0,Phases=2,kv=0.24,kW=0.76606,pf=0.92,Vminpu=0.92,Vmaxpu=1.5,model=8,zipv=[0.5,0,0.5,1,0,0,0],daily=RUR1_17,status=variable
new load.3000804685M1 bus1=RML1052994154.1.2.0,Phases=2,kv=0.24,kW=1.29574,pf=0.92,Vminpu=0.92,Vmaxpu=1.5,model=8,zipv=[0.5,0,0.5,1,0,0,0],daily=RUR2_19,status=variable
new load.3000804693M1 bus1=RML1052994070.1.2.0,Phases=2,kv=0.24,kW=1.91156,pf=0.92,Vminpu=0.92,Vmaxpu=1.5,model=8,zipv=[0.5,0,0.5,1,0,0,0],daily=RUR3_16,status=variable
new load.3000804701M1 bus1=RML1054868824.1.2.0,Phases=2,kv=0.24,kW=1.22948,pf=0.92,Vminpu=0.92,Vmaxpu=1.5,model=8,zipv=[0.5,0,0.5,1,0,0,0],daily=RUR1_17,status=variable
new load.3000804709M1 bus1=RML1054897370.1.2.0,Phases=2,kv=0.24,kW=2.23954,pf=0.92,Vminpu=0.92,Vmaxpu=1.5,model=8,zipv=[0.5,0,0.5,1,0,0,0],daily=RUR2_19,status=variable
new load.3000804736M1 bus1=RML1052993958.1.2.3.0,Phases=3,kv=0.22,kW=1.85792,pf=0.92,Vminpu=0.92,Vmaxpu=1.5,model=8,zipv=[0.5,0,0.5,1,0,0,0],daily=RUR3_16,status=variable
new load.3000804744M1 bus1=RML1054897419.1.2.0,Phases=2,kv=0.24,kW=1.65566,pf=0.92,Vminpu=0.92,Vmaxpu=1.5,model=8,zipv=[0.5,0,0.5,1,0,0,0],daily=RUR2_19,status=variable
new load.3000804753M1 bus1=RML1053045632.1.2.0,Phases=2,kv=0.24,kW=1.72766,pf=0.92,Vminpu=0.92,Vmaxpu=1.5,model=8,zipv=[0.5,0,0.5,1,0,0,0],daily=RUR2_19,status=variable
new load.3000804761M1 bus1=RML1053169504.1.2.0,Phases=2,kv=0.24,kW=3.9752,pf=0.92,Vminpu=0.92,Vmaxpu=1.5,model=8,zipv=[0.5,0,0.5,1,0,0,0],daily=RUR2_19,status=variable
new load.3000804769M1 bus1=RML1053169847.1.2.0,Phases=2,kv=0.24,kW=0.63988,pf=0.92,Vminpu=0.92,Vmaxpu=1.5,model=8,zipv=[0.5,0,0.5,1,0,0,0],daily=RUR2_19,status=variable
new load.3000804778M1 bus1=RML1053169532.1.2.0,Phases=2,kv=0.24,kW=2.06862,pf=0.92,Vminpu=0.92,Vmaxpu=1.5,model=8,zipv=[0.5,0,0.5,1,0,0,0],daily=RUR3_16,status=variable
new load.3000804786M1 bus1=RML1053169721.1.2.0,Phases=2,kv=0.24,kW=1.54764,pf=0.92,Vminpu=0.92,Vmaxpu=1.5,model=8,zipv=[0.5,0,0.5,1,0,0,0],daily=RUR3_16,status=variable
new load.3000804795M1 bus1=RML1053169749.1.2.0,Phases=2,kv=0.24,kW=0.86576,pf=0.92,Vminpu=0.92,Vmaxpu=1.5,model=8,zipv=[0.5,0,0.5,1,0,0,0],daily=RUR3_16,status=variable
new load.3000804803M1 bus1=RML1053169707.1.2.0,Phases=2,kv=0.24,kW=1.50932,pf=0.92,Vminpu=0.92,Vmaxpu=1.5,model=8,zipv=[0.5,0,0.5,1,0,0,0],daily=RUR3_16,status=variable
new load.3000804811M1 bus1=RML1053169616.1.2.0,Phases=2,kv=0.24,kW=0.6715,pf=0.92,Vminpu=0.92,Vmaxpu=1.5,model=8,zipv=[0.5,0,0.5,1,0,0,0],daily=RUR1_17,status=variable
new load.3000804820M1 bus1=RML1054898308.1.2.0,Phases=2,kv=0.24,kW=1.75912,pf=0.92,Vminpu=0.92,Vmaxpu=1.5,model=8,zipv=[0.5,0,0.5,1,0,0,0],daily=RUR1_17,status=variable
new load.3000804837M1 bus1=RML1053170183.1.2.0,Phases=2,kv=0.24,kW=2.78344,pf=0.92,Vminpu=0.92,Vmaxpu=1.5,model=8,zipv=[0.5,0,0.5,1,0,0,0],daily=RUR2_19,status=variable
new load.3000804845M1 bus1=RML1053169973.1.2.0,Phases=2,kv=0.24,kW=4.4005,pf=0.92,Vminpu=0.92,Vmaxpu=1.5,model=8,zipv=[0.5,0,0.5,1,0,0,0],daily=RUR4_16,status=variable
new load.3000804853M1 bus1=RML1053170029.1.2.0,Phases=2,kv=0.24,kW=1.36758,pf=0.92,Vminpu=0.92,Vmaxpu=1.5,model=8,zipv=[0.5,0,0.5,1,0,0,0],daily=RUR3_16,status=variable
new load.3000804622M1 bus1=RML1054868096.1.2.0,Phases=2,kv=0.24,kW=0.04438,pf=0.92,Vminpu=0.92,Vmaxpu=1.5,model=8,zipv=[0.5,0,0.5,1,0,0,0],daily=COM1_20,status=variable
new load.3000804630M1 bus1=RML1054868474.1.2.0,Phases=2,kv=0.24,kW=2.56748,pf=0.92,Vminpu=0.92,Vmaxpu=1.5,model=8,zipv=[0.5,0,0.5,1,0,0,0],daily=RUR2_19,status=variable
new load.3000804639M1 bus1=RML1054868390.1.2.0,Phases=2,kv=0.24,kW=3.0234,pf=0.92,Vminpu=0.92,Vmaxpu=1.5,model=8,zipv=[0.5,0,0.5,1,0,0,0],daily=RUR2_19,status=variable
new load.3000804649M1 bus1=RML1054869461.1.2.0,Phases=2,kv=0.24,kW=0.89848,pf=0.92,Vminpu=0.92,Vmaxpu=1.5,model=8,zipv=[0.5,0,0.5,1,0,0,0],daily=RUR1_17,status=variable
new load.3000804657M1 bus1=RML1054868250.1.2.0,Phases=2,kv=0.24,kW=2.27154,pf=0.92,Vminpu=0.92,Vmaxpu=1.5,model=8,zipv=[0.5,0,0.5,1,0,0,0],daily=RUR2_19,status=variable
new load.3000804666M1 bus1=RML1052993881.1.2.0,Phases=2,kv=0.24,kW=2.38658,pf=0.92,Vminpu=0.92,Vmaxpu=1.5,model=8,zipv=[0.5,0,0.5,1,0,0,0],daily=RUR3_16,status=variable
new load.3000804674M1 bus1=RML1052994189.1.2.0,Phases=2,kv=0.24,kW=0.52962,pf=0.92,Vminpu=0.92,Vmaxpu=1.5,model=8,zipv=[0.5,0,0.5,1,0,0,0],daily=RUR1_17,status=variable
new load.3000804682M1 bus1=RML1052994133.1.2.0,Phases=2,kv=0.24,kW=0.6715,pf=0.92,Vminpu=0.92,Vmaxpu=1.5,model=8,zipv=[0.5,0,0.5,1,0,0,0],daily=RUR1_17,status=variable
new load.3000804690M1 bus1=RML1052994063.1.2.0,Phases=2,kv=0.24,kW=0.9845,pf=0.92,Vminpu=0.92,Vmaxpu=1.5,model=8,zipv=[0.5,0,0.5,1,0,0,0],daily=RUR3_16,status=variable
new load.3000804698M1 bus1=RML1054893359.1.2.0,Phases=2,kv=0.24,kW=1.14438,pf=0.92,Vminpu=0.92,Vmaxpu=1.5,model=8,zipv=[0.5,0,0.5,1,0,0,0],daily=RUR1_17,status=variable
new load.3000804706M1 bus1=RML1054868754.1.2.0,Phases=2,kv=0.24,kW=0.05674,pf=0.92,Vminpu=0.92,Vmaxpu=1.5,model=8,zipv=[0.5,0,0.5,1,0,0,0],daily=RUR1_17,status=variable
new load.3000804714M1 bus1=RML1054869062.1.2.0,Phases=2,kv=0.24,kW=0.14186,pf=0.92,Vminpu=0.92,Vmaxpu=1.5,model=8,zipv=[0.5,0,0.5,1,0,0,0],daily=RUR1_17,status=variable
new load.3000804722M1 bus1=RML1052993923.1.2.0,Phases=2,kv=0.24,kW=1.10378,pf=0.92,Vminpu=0.92,Vmaxpu=1.5,model=8,zipv=[0.5,0,0.5,1,0,0,0],daily=RUR2_19,status=variable
new load.3000804733M1 bus1=RML1052994273.1.2.0,Phases=2,kv=0.24,kW=0.80446,pf=0.92,Vminpu=0.92,Vmaxpu=1.5,model=8,zipv=[0.5,0,0.5,1,0,0,0],daily=RUR3_16,status=variable
new load.3000804750M1 bus1=RML1054897461.1.2.0,Phases=2,kv=0.22,kW=1.27678,pf=0.92,Vminpu=0.92,Vmaxpu=1.5,model=8,zipv=[0.5,0,0.5,1,0,0,0],daily=RUR1_17,status=variable
new load.3000804758M1 bus1=RML1053169490.1.2.0,Phases=2,kv=0.24,kW=6.81398,pf=0.92,Vminpu=0.92,Vmaxpu=1.5,model=8,zipv=[0.5,0,0.5,1,0,0,0],daily=RUR4_16,status=variable
new load.3000804766M1 bus1=RML1053169868.1.2.0,Phases=2,kv=0.24,kW=1.08794,pf=0.92,Vminpu=0.92,Vmaxpu=1.5,model=8,zipv=[0.5,0,0.5,1,0,0,0],daily=RUR3_16,status=variable
new load.3000804775M1 bus1=RML1053169819.1.2.0,Phases=2,kv=0.24,kW=0.83984,pf=0.92,Vminpu=0.92,Vmaxpu=1.5,model=8,zipv=[0.5,0,0.5,1,0,0,0],daily=RUR2_19,status=variable
new load.3000804783M1 bus1=RML1054898203.1.2.0,Phases=2,kv=0.24,kW=2.19156,pf=0.92,Vminpu=0.92,Vmaxpu=1.5,model=8,zipv=[0.5,0,0.5,1,0,0,0],daily=RUR2_19,status=variable
new load.3000804792M1 bus1=RML1053169756.1.2.0,Phases=2,kv=0.24,kW=0.67952,pf=0.92,Vminpu=0.92,Vmaxpu=1.5,model=8,zipv=[0.5,0,0.5,1,0,0,0],daily=RUR4_16,status=variable
new load.3000804800M1 bus1=RML1053169693.1.2.0,Phases=2,kv=0.24,kW=3.5971,pf=0.92,Vminpu=0.92,Vmaxpu=1.5,model=8,zipv=[0.5,0,0.5,1,0,0,0],daily=RUR3_16,status=variable
new load.3000804816M1 bus1=RML1053169665.1.2.0,Phases=2,kv=0.24,kW=1.16776,pf=0.92,Vminpu=0.92,Vmaxpu=1.5,model=8,zipv=[0.5,0,0.5,1,0,0,0],daily=RUR2_19,status=variable
new load.3000804825M1 bus1=RML1053170099.1.2.0,Phases=2,kv=0.24,kW=1.54368,pf=0.92,Vminpu=0.92,Vmaxpu=1.5,model=8,zipv=[0.5,0,0.5,1,0,0,0],daily=RUR2_19,status=variable
new load.3000804833M1 bus1=RML1053170155.1.2.0,Phases=2,kv=0.24,kW=0.66386,pf=0.92,Vminpu=0.92,Vmaxpu=1.5,model=8,zipv=[0.5,0,0.5,1,0,0,0],daily=RUR2_19,status=variable
new load.3000804842M1 bus1=RML1053169938.1.2.0,Phases=2,kv=0.24,kW=2.64746,pf=0.92,Vminpu=0.92,Vmaxpu=1.5,model=8,zipv=[0.5,0,0.5,1,0,0,0],daily=RUR2_19,status=variable
new load.3000804850M1 bus1=RML1053170008.1.2.0,Phases=2,kv=0.24,kW=0.23668,pf=0.92,Vminpu=0.92,Vmaxpu=1.5,model=8,zipv=[0.5,0,0.5,1,0,0,0],daily=COM1_20,status=variable
new load.3000804635M1 bus1=RML1053155448.1.2.0,Phases=2,kv=0.24,kW=1.12778,pf=0.92,Vminpu=0.92,Vmaxpu=1.5,model=8,zipv=[0.5,0,0.5,1,0,0,0],daily=RUR2_19,status=variable
new load.3000804644M1 bus1=RML1054867802.1.2.0,Phases=2,kv=0.24,kW=3.56164,pf=0.92,Vminpu=0.92,Vmaxpu=1.5,model=8,zipv=[0.5,0,0.5,1,0,0,0],daily=RUR4_16,status=variable
new load.3000804653M1 bus1=RML1054868236.1.2.0,Phases=2,kv=0.24,kW=1.66638,pf=0.92,Vminpu=0.92,Vmaxpu=1.5,model=8,zipv=[0.5,0,0.5,1,0,0,0],daily=RUR3_16,status=variable
new load.3000804661M1 bus1=RML1054868292.1.2.0,Phases=2,kv=0.24,kW=1.40918,pf=0.92,Vminpu=0.92,Vmaxpu=1.5,model=8,zipv=[0.5,0,0.5,1,0,0,0],daily=RUR1_17,status=variable
new load.3000804670M1 bus1=RML1060507908.1.2.0,Phases=2,kv=0.24,kW=0.85582,pf=0.92,Vminpu=0.92,Vmaxpu=1.5,model=8,zipv=[0.5,0,0.5,1,0,0,0],daily=RUR2_19,status=variable
new load.3000804678M1 bus1=RML1052994084.1.2.0,Phases=2,kv=0.24,kW=0.97414,pf=0.92,Vminpu=0.92,Vmaxpu=1.5,model=8,zipv=[0.5,0,0.5,1,0,0,0],daily=RUR1_17,status=variable
new load.3000804686M1 bus1=RML1052994147.1.2.0,Phases=2,kv=0.24,kW=1.35172,pf=0.92,Vminpu=0.92,Vmaxpu=1.5,model=8,zipv=[0.5,0,0.5,1,0,0,0],daily=RUR2_19,status=variable
new load.3000804694M1 bus1=RML1054867151.1.2.0,Phases=2,kv=0.24,kW=1.73566,pf=0.92,Vminpu=0.92,Vmaxpu=1.5,model=8,zipv=[0.5,0,0.5,1,0,0,0],daily=RUR2_19,status=variable
new load.3000804702M1 bus1=RML1054867375.1.2.0,Phases=2,kv=0.24,kW=1.57568,pf=0.92,Vminpu=0.92,Vmaxpu=1.5,model=8,zipv=[0.5,0,0.5,1,0,0,0],daily=RUR2_19,status=variable
new load.3000804710M1 bus1=RML1054869209.1.2.0,Phases=2,kv=0.24,kW=0.85118,pf=0.92,Vminpu=0.92,Vmaxpu=1.5,model=8,zipv=[0.5,0,0.5,1,0,0,0],daily=RUR1_17,status=variable
new load.3000804718M1 bus1=RML1052993895.1.2.0,Phases=2,kv=0.24,kW=0.5861,pf=0.92,Vminpu=0.92,Vmaxpu=1.5,model=8,zipv=[0.5,0,0.5,1,0,0,0],daily=RUR3_16,status=variable
new load.3000804728M1 bus1=RML1052994259.1.2.0,Phases=2,kv=0.24,kW=2.19956,pf=0.92,Vminpu=0.92,Vmaxpu=1.5,model=8,zipv=[0.5,0,0.5,1,0,0,0],daily=RUR2_19,status=variable
new load.3000804737M1 bus1=RML1052993979.1.2.0,Phases=2,kv=0.24,kW=1.55104,pf=0.92,Vminpu=0.92,Vmaxpu=1.5,model=8,zipv=[0.5,0,0.5,1,0,0,0],daily=RUR1_17,status=variable
new load.3000804745M1 bus1=RML1054897440.1.2.0,Phases=2,kv=0.24,kW=1.21576,pf=0.92,Vminpu=0.92,Vmaxpu=1.5,model=8,zipv=[0.5,0,0.5,1,0,0,0],daily=RUR2_19,status=variable
new load.3000804754M1 bus1=RML1053045639.1.2.0,Phases=2,kv=0.24,kW=1.5277,pf=0.92,Vminpu=0.92,Vmaxpu=1.5,model=8,zipv=[0.5,0,0.5,1,0,0,0],daily=RUR2_19,status=variable
new load.3000804762M1 bus1=RML1053169511.1.2.0,Phases=2,kv=0.24,kW=2.0236,pf=0.92,Vminpu=0.92,Vmaxpu=1.5,model=8,zipv=[0.5,0,0.5,1,0,0,0],daily=RUR2_19,status=variable
...
